[General]
network = LTECell
image-path=../../images
tkenv-plugin-path = ../../../inet/etc/plugins
output-scalar-file-append = false
debug-on-errors = true
tkenv-default-config = 
sim-time-limit=15s
warmup-period=2s # Excludes first x seconds from statistic computation.
repeat = 1
**.routingRecorder.enabled = false

# Statistics.
output-scalar-file = ${resultdir}/${configname}/${repetition}.sca
output-vector-file = ${resultdir}/${configname}/${repetition}.vec
seed-set = ${repetition}
**.vector-recording = true

# Channel.
**.channelControl.pMax = 10W
**.channelControl.alpha = 1.0
**.channelControl.carrierFrequency = 2100e+6Hz

# Phyiscal layer.
**.nic.phy.channelModel=xmldoc("config_channel_no_effects.xml")
**.feedbackComputation = xmldoc("config_channel_no_effects.xml")

# Mobility.
**.mobility.constraintAreaMinZ = 0m
**.mobility.constraintAreaMaxZ = 0m
# Feedback delay.
**.fbDelay = 1
# Adaptive Modulation and Coding (AMC) Module.
**.rbAllocationType = "localized"
**.deployer.numRbDl = 50
**.deployer.numRbUl = 50
**.numBands = 50

[Config OneD2DPair]
*.numUeCell = 0
*.numUeD2DTx = 1
*.numUeD2DRx = 1

# eNodeB.
*.eNodeB.mobility.initFromDisplayString = false
*.eNodeB.mobility.initialX = 300m
*.eNodeB.mobility.initialY = 300m

# UEs.
*.ue*[0].macCellId = 1
*.ue*[0].masterId = 1
*.ue*[0].mobility.initFromDisplayString = false

*.ueD2DTx[0].mobility.initialX = 550m
*.ueD2DTx[0].mobility.initialY = 350m
*.ueD2DRx[0].mobility.initialX = 50m
*.ueD2DRx[0].mobility.initialY = 350m

*.ue*[*].nic.phy.ueTxPower = 26   # UL Tx Power (in dB)
*.ue*[*].nic.phy.d2dTxPower = 24.14973348 # 10*LOG10(260)


[Config TCPApps]
extends=OneD2DPair

# TCP.
**.tcpType = "TCP"
**.tcp.tcpAlgorithmClass = "TCPNewReno"
**.tcp.windowScalingSupport = true
**.tcpApp[*].dataTransferMode = "object"
**.tcp.mss = 1460
**.tcp.advertisedWindow = 1460000

*.ueD2D*[0].numTcpApps = 1

# Transmitter.
*.ueD2DTx[0].tcpApp[0].typename = "TCPBasicClientApp"
*.ueD2DTx[0].tcpApp[0].requestLength = 500B
*.ueD2DTx[0].tcpApp[0].replyLength = 500B
*.ueD2DTx[0].tcpApp[0].idleInterval = exponential(1s)
*.ueD2DTx[0].tcpApp[0].connectAddress = "ueD2DRx[0]"
*.ueD2DTx[0].tcpApp[0].connectPort = 1000
*.ueD2DTx[0].tcpApp[0].thinkTime = 0s

# Receiver
*.ueD2DRx[0].tcpApp[*].typename = "TCPGenericSrvApp"
*.ueD2DRx[0].tcpApp[*].localPort = 1000
**.tcpApp[*].tClose = -1s


[Config UDPApps]
extends=OneD2DPair

**.ue*[0].numUdpApps = 1

**.ueD2DTx[0].udpApp[0].typename = "UDPBasicApp"
**.ueD2DTx[0].udpApp[0].destAddresses = "ueD2DRx[0]"
**.ueD2DTx[0].udpApp[0].destPort = 1000
**.ueD2DTx[0].udpApp[0].sendInterval = exponential(1s)
**.ueD2DTx[0].udpApp[0].messageLength = 500B

**.ueD2DRx[0].udpApp[0].typename = "UDPSink"
**.ueD2DRx[0].udpApp[0].localPort = 1000


[Config Cellular]
extends=UDPApps

# Disable D2D for the eNodeB and the UEs
**.eNodeB.d2dCapable = false
**.ueD2D*[0].d2dCapable = false
**.**.amcMode = "AUTO"


[Config D2D]
extends=UDPApps

# Enable D2D.
**.eNodeB.d2dCapable = true
**.ueD2D*[0].d2dCapable = true
**.amcMode = "D2D"

**.ueD2DTx[0].nic.d2dPeerAddresses = "ueD2DRx[0]"
**.ueD2DRx[0].nic.d2dPeerAddresses = "ueD2DTx[0]"

**.eNodeB.nic.phy.enableD2DCqiReporting = true # false -> out_of_range error.
**.usePreconfiguredTxParams = false # true -> undefined runtime error
**.d2dCqi = 7


[Config D2DModeSelection]
extends=D2D

*.eNodeB.nic.d2dModeSelection = true
*.eNodeB.nic.d2dModeSelectionType = "D2DModeSelectionBestCqi"
